@<TRIPOS>MOLECULE
lig.pdb
22 22 1 0 0
SMALL
AMBER ff14SB


@<TRIPOS>ATOM
      1 C4         24.2940  -24.1240   -0.0710 C.3       1 JZ4167   -0.0651
      2 C7         21.5530  -27.2140   -4.1120 C.ar      1 JZ4167   -0.0618
      3 C8         22.0680  -26.7470   -5.3310 C.ar      1 JZ4167   -0.0597
      4 C9         22.6710  -25.5120   -5.4480 C.ar      1 JZ4167   -0.0318
      5 C10        22.7690  -24.7300   -4.2950 C.ar      1 JZ4167    0.0744
      6 C11        21.6930  -26.4590   -2.9540 C.ar      1 JZ4167   -0.0564
      7 C12        22.2940  -25.1870   -3.0750 C.ar      1 JZ4167   -0.0180
      8 C13        22.4630  -24.4140   -1.8080 C.3       1 JZ4167   -0.0256
      9 C14        23.9250  -24.7040   -1.3940 C.3       1 JZ4167   -0.0520
     10 OAB        23.4120  -23.5360   -4.3420 O.3       1 JZ4167   -0.3607
     11 H7         21.0447  -28.1661   -4.0737 H         1 JZ4167    0.0623
     12 H8         21.9896  -27.3751   -6.2061 H         1 JZ4167    0.0624
     13 H9         23.0531  -25.1628   -6.3959 H         1 JZ4167    0.0650
     14 H11        21.3551  -26.8308   -1.9980 H         1 JZ4167    0.0627
     15 H132       22.3119  -23.3483   -1.9799 H         1 JZ4167    0.0317
     16 H133       21.7732  -24.7775   -1.0463 H         1 JZ4167    0.0317
     17 H142       24.0626  -25.7843   -1.3476 H         1 JZ4167    0.0267
     18 H143       24.5923  -24.2974   -2.1540 H         1 JZ4167    0.0267
     19 HAB        22.8219  -22.8428   -4.0372 H         1 JZ4167    0.2183
     20 H41        25.3323  -24.3661    0.1556 H         1 JZ4167    0.0230
     21 H42        24.1722  -23.0413   -0.1025 H         1 JZ4167    0.0230
     22 H43        23.6470  -24.5401    0.7013 H         1 JZ4167    0.0230
@<TRIPOS>BOND
     1    4    3 ar
     2    4    5 ar
     3    3    2 ar
     4   10    5 1
     5    5    7 ar
     6    2    6 ar
     7    7    6 ar
     8    7    8 1
     9    8    9 1
    10    9    1 1
    11   11    2 1
    12   12    3 1
    13   13    4 1
    14   14    6 1
    15   15    8 1
    16   16    8 1
    17   17    9 1
    18   18    9 1
    19   19   10 1
    20   20    1 1
    21   21    1 1
    22   22    1 1
@<TRIPOS>SUBSTRUCTURE
     1 JZ4167     1 RESIDUE           4 A     JZ4167     0 ROOT
