@<TRIPOS>MOLECULE
lig.pdb
22 22 1
SMALL
GASTEIGER

@<TRIPOS>DICT

@<TRIPOS>ATOM
      1 C4         24.2940  -24.1240   -0.0710 C.3       1 JZ4167      0.0000
      2 C7         21.5530  -27.2140   -4.1120 C.ar      1 JZ4167      0.0000
      3 C8         22.0680  -26.7470   -5.3310 C.ar      1 JZ4167      0.0000
      4 C9         22.6710  -25.5120   -5.4480 C.ar      1 JZ4167      0.0000
      5 C10        22.7690  -24.7300   -4.2950 C.ar      1 JZ4167      0.0000
      6 C11        21.6930  -26.4590   -2.9540 C.ar      1 JZ4167      0.0000
      7 C12        22.2940  -25.1870   -3.0750 C.ar      1 JZ4167      0.0000
      8 C13        22.4630  -24.4140   -1.8080 C.3       1 JZ4167      0.0000
      9 C14        23.9250  -24.7040   -1.3940 C.3       1 JZ4167      0.0000
     10 OAB        23.4120  -23.5360   -4.3420 O.3       1 JZ4167      0.0000
     11 H7         21.0428  -28.1697   -4.0736 H         1 JZ4167      0.0000
     12 H8         21.9894  -27.3774   -6.2093 H         1 JZ4167      0.0000
     13 H9         23.0545  -25.1615   -6.3994 H         1 JZ4167      0.0000
     14 H11        21.3538  -26.8322   -1.9944 H         1 JZ4167      0.0000
     15 H41        23.5097  -23.4247    0.2544 H         1 JZ4167      0.0000
     16 H42        24.3944  -24.9321    0.6685 H         1 JZ4167      0.0000
     17 H43        25.2501  -23.5873   -0.1597 H         1 JZ4167      0.0000
     18 H131       21.7509  -24.7677   -1.0479 H         1 JZ4167      0.0000
     19 H132       22.3009  -23.3416   -1.9914 H         1 JZ4167      0.0000
     20 H141       24.0766  -25.7919   -1.3349 H         1 JZ4167      0.0000
     21 H142       24.6063  -24.2791   -2.1458 H         1 JZ4167      0.0000
     22 HAB        22.7200  -22.8852   -4.3505 H         1 JZ4167      0.0000
@<TRIPOS>BOND
     1    1    9 1
     2    2    3 ar
     3    2    6 ar
     4    3    4 ar
     5    4    5 ar
     6    5    7 ar
     7    5   10 1
     8    6    7 ar
     9    7    8 1
    10    8    9 1
    11    2   11 1
    12    3   12 1
    13    4   13 1
    14    6   14 1
    15    1   15 1
    16    1   16 1
    17    1   17 1
    18    8   18 1
    19    8   19 1
    20    9   20 1
    21    9   21 1
    22   10   22 1
@<TRIPOS>SUBSTRUCTURE
1 JZ4167 1
@<TRIPOS>COMMENT
0.0000



